MOPF_300a.m
function mpc = MOPF_300a
%MOPF_300a    Power flow data for modified IEEE 300 bus test case.
%   Please see CASEFORMAT for details on the case file format.


%% MATPOWER Case Format : Version 2
mpc.version = '2';

%%-----  Power Flow Data  -----%%
%% system MVA base
mpc.baseMVA = 100;

%% bus data
%	bus_i	type	Pd	Qd	Gs	Bs	area	Vm	Va	baseKV	zone	Vmax	Vmin
mpc.bus = [
	1	1	90	49	0	0	1	1.0284	5.95	115	1	1.06	0.94;
	2	1	56	15	0	0	1	1.0354	7.74	115	1	1.06	0.94;
	3	1	20	0	0	0	1	0.9971	6.64	230	1	1.06	0.94;
	4	1	0	0	0	0	1	1.0308	4.71	345	1	1.06	0.94;
	5	1	353	130	0	0	1	1.0191	4.68	115	1	1.06	0.94;
	6	1	120	41	0	0	1	1.0312	6.99	115	1	1.06	0.94;
	7	1	0	0	0	0	1	0.9934	6.19	230	1	1.06	0.94;
	8	2	63	14	0	0	1	1.0153	2.4	115	1	1.06	0.94;
	9	1	96	43	0	0	1	1.0034	2.85	115	1	1.06	0.94;
	10	2	153	33	0	0	1	1.0205	1.35	230	1	1.06	0.94;
	11	1	83	21	0	0	1	1.0057	2.46	115	1	1.06	0.94;
	12	1	0	0	0	0	1	0.9974	5.21	230	1	1.06	0.94;
	13	1	58	10	0	0	1	0.9977	-0.55	115	1	1.06	0.94;
	14	1	160	60	0	0	1	0.9991	-4.81	115	1	1.06	0.94;
	15	1	126.7	23	0	0	1	1.0343	-8.59	115	1	1.06	0.94;
	16	1	0	0	0	0	1	1.0315	-2.65	345	1	1.06	0.94;
	17	1	561	220	0	0	1	1.0649	-13.1	115	1	1.06	0.94;
	19	1	0	0	0	0	1	0.982	1.08	230	1	1.06	0.94;
	20	2	605	120	0	0	1	1.001	-2.46	115	1	1.06	0.94;
	21	1	77	1	0	0	1	0.9752	1.62	230	1	1.06	0.94;
	22	1	81	23	0	0	1	0.9963	-1.97	115	1	1.06	0.94;
	23	1	21	7	0	0	1	1.0501	3.94	115	1	1.06	0.94;
	24	1	0	0	0	0	1	1.0057	6.02	230	1	1.06	0.94;
	25	1	45	12	0	0	1	1.0234	1.44	115	1	1.06	0.94;
	26	1	28	9	0	0	1	0.9986	-1.73	115	1	1.06	0.94;
	27	1	69	13	0	0	1	0.975	-4.9	115	1	1.06	0.94;
	33	1	55	6	0	0	1	1.0244	-12.02	115	1	1.06	0.94;
	34	1	0	0	0	0	1	1.0414	-7.94	345	1	1.06	0.94;
	35	1	0	0	0	0	1	0.9757	-25.72	115	1	1.06	0.94;
	36	1	0	0	0	0	1	1.0011	-22.59	230	1	1.06	0.94;
	37	1	85	32	0	0	1	1.0201	-11.23	115	1	1.06	0.94;
	38	1	155	18	0	0	1	1.0202	-12.56	115	1	1.06	0.94;
	39	1	0	0	0	0	1	1.0535	-5.81	345	1	1.06	0.94;
	40	1	46	-21	0	0	1	1.0216	-12.78	115	1	1.06	0.94;
	41	1	86	0	0	0	1	1.0292	-10.45	115	1	1.06	0.94;
	42	1	0	0	0	0	1	1.0448	-7.44	345	1	1.06	0.94;
	43	1	39	9	0	0	1	1.0006	-16.79	115	1	1.06	0.94;
	44	1	195	29	0	0	1	1.0086	-17.47	115	1	1.06	0.94;
	45	1	0	0	0	0	1	1.0215	-14.74	230	1	1.06	0.94;
	46	1	0	0	0	0	1	1.0344	-11.75	345	1	1.06	0.94;
	47	1	58	11.8	0	0	1	0.9777	-23.17	115	1	1.06	0.94;
	48	1	41	19	0	0	1	1.0019	-16.09	115	1	1.06	0.94;
	49	1	92	26	0	0	1	1.0475	-2.95	115	1	1.06	0.94;
	51	1	-5	5	0	0	1	1.0253	-8.15	115	1	1.06	0.94;
	52	1	61	28	0	0	1	0.9979	-11.86	115	1	1.06	0.94;
	53	1	69	3	0	0	1	0.9959	-17.6	115	1	1.06	0.94;
	54	1	10	1	0	0	1	1.005	-16.25	115	1	1.06	0.94;
	55	1	22	10	0	0	1	1.015	-12.21	115	1	1.06	0.94;
	57	1	98	20	0	0	1	1.0335	-8	115	1	1.06	0.94;
	58	1	14	1	0	0	1	0.9918	-5.99	115	1	1.06	0.94;
	59	1	218	106	0	0	1	0.9789	-5.29	115	1	1.06	0.94;
	60	1	0	0	0	0	1	1.0246	-9.56	230	1	1.06	0.94;
	61	1	227	110	0	0	1	0.9906	-3.47	115	1	1.06	0.94;
	62	1	0	0	0	0	1	1.016	-1.1	230	1	1.06	0.94;
	63	2	70	30	0	0	1	0.9583	-17.62	115	1	1.06	0.94;
	64	1	0	0	0	0	1	0.948	-12.97	230	1	1.06	0.94;
	69	1	0	0	0	0	1	0.963	-25.66	115	1	1.06	0.94;
	70	1	56	20	0	0	1	0.9513	-35.16	115	1	1.06	0.94;
	71	1	116	38	0	0	1	0.9793	-29.88	115	1	1.06	0.94;
	72	1	57	19	0	0	1	0.9696	-27.48	115	1	1.06	0.94;
	73	1	224	71	0	0	1	0.9775	-25.77	115	1	1.06	0.94;
	74	1	0	0	0	0	1	0.9964	-22	230	1	1.06	0.94;
	76	2	208	107	0	0	1	0.9632	-26.54	115	1	1.06	0.94;
	77	1	74	28	0	0	1	0.9837	-24.94	115	1	1.06	0.94;
	78	1	0	0	0	0	1	0.99	-24.05	115	1	1.06	0.94;
	79	1	48	14	0	0	1	0.982	-24.97	115	1	1.06	0.94;
	80	1	28	7	0	0	1	0.9872	-24.97	115	1	1.06	0.94;
	81	1	0	0	0	0	1	1.034	-18.89	345	1	1.06	0.94;
	84	2	37	13	0	0	1	1.025	-17.16	115	1	1.06	0.94;
	85	1	0	0	0	0	1	0.9872	-17.68	230	1	1.06	0.94;
	86	1	0	0	0	0	1	0.9909	-14.19	230	1	1.06	0.94;
	87	1	0	0	0	0	1	0.9921	-7.77	230	1	1.06	0.94;
	88	1	0	0	0	0	1	1.0151	-20.96	230	1	1.06	0.94;
	89	1	44.2	0	0	0	1	1.0317	-11.13	115	1	1.06	0.94;
	90	1	66	0	0	0	1	1.0272	-11.23	115	1	1.06	0.94;
	91	2	17.4	0	0	0	1	1.052	-9.4	115	1	1.06	0.94;
	92	2	15.8	0	0	0	1	1.052	-6.2	115	1	1.06	0.94;
	94	1	60.3	0	0	0	1	0.993	-9.42	115	1	1.06	0.94;
	97	1	39.9	0	0	0	1	1.0183	-13.24	115	1	1.06	0.94;
	98	2	66.7	0	0	0	1	1	-14.6	115	1	1.06	0.94;
	99	1	83.5	0	0	0	1	0.9894	-20.27	115	1	1.06	0.94;
	100	1	0	0	0	0	1	1.006	-14.45	115	1	1.06	0.94;
	102	1	77.8	0	0	0	1	1.0008	-15.23	115	1	1.06	0.94;
	103	1	32	0	0	0	1	1.0288	-12.06	115	1	1.06	0.94;
	104	1	8.6	0	0	0	1	0.9958	-17.33	115	1	1.06	0.94;
	105	1	49.6	0	0	0	1	1.0223	-12.94	115	1	1.06	0.94;
	107	1	4.6	0	0	0	1	1.0095	-16.03	115	1	1.06	0.94;
	108	2	112.1	0	0	0	1	0.99	-20.26	115	1	1.06	0.94;
	109	1	30.7	0	0	0	1	0.9749	-26.06	115	1	1.06	0.94;
	110	1	63	0	0	0	1	0.973	-24.72	115	1	1.06	0.94;
	112	1	19.6	0	0	0	1	0.9725	-28.69	115	1	1.06	0.94;
	113	1	26.2	0	0	0	1	0.97	-25.38	115	1	1.06	0.94;
	114	1	18.2	0	0	0	1	0.9747	-28.59	115	1	1.06	0.94;
	115	1	0	0	0	0	1	0.9603	-13.57	115	2	1.06	0.94;
	116	1	0	0	0	0	1	1.0249	-12.69	115	2	1.06	0.94;
	117	1	0	0	0	325	1	0.9348	-4.72	115	2	1.06	0.94;
	118	1	14.1	650	0	0	1	0.9298	-4.12	115	2	1.06	0.94;
	119	2	0	0	0	0	1	1.0435	5.17	115	2	1.06	0.94;
	120	1	777	215	0	55	1	0.9584	-8.77	115	2	1.06	0.94;
	121	1	535	55	0	0	1	0.9871	-12.64	115	2	1.06	0.94;
	122	1	229.1	11.8	0	0	1	0.9728	-14.36	115	2	1.06	0.94;
	123	1	78	1.4	0	0	1	1.0006	-17.64	115	2	1.06	0.94;
	124	2	276.4	59.3	0	0	1	1.0233	-13.49	115	2	1.06	0.94;
	125	2	514.8	82.7	0	0	1	1.0103	-18.43	115	2	1.06	0.94;
	126	1	57.9	5.1	0	0	1	0.9978	-12.86	115	2	1.06	0.94;
	127	1	380.8	37	0	0	1	1.0001	-10.52	230	2	1.06	0.94;
	128	1	0	0	0	0	1	1.0024	-4.78	230	2	1.06	0.94;
	129	1	0	0	0	0	1	1.0028	-4.4	230	2	1.06	0.94;
	130	1	0	0	0	0	1	1.0191	5.56	230	2	1.06	0.94;
	131	1	0	0	0	0	1	0.9861	6.06	230	2	1.06	0.94;
	132	1	0	0	0	0	1	1.0045	3.04	230	2	1.06	0.94;
	133	1	0	0	0	0	1	1.002	-5.46	230	2	1.06	0.94;
	134	1	0	0	0	0	1	1.022	-8.04	230	2	1.06	0.94;
	135	1	169.2	41.6	0	0	1	1.0193	-6.76	230	2	1.06	0.94;
	136	1	55.2	18.2	0	0	1	1.0476	1.54	230	2	1.06	0.94;
	137	1	273.6	99.8	0	0	1	1.0471	-1.45	230	2	1.06	0.94;
	138	2	1019.2	135.2	0	0	1	1.055	-6.35	230	2	1.06	0.94;
	139	1	595	83.3	0	0	1	1.0117	-3.57	115	2	1.06	0.94;
	140	1	387.7	114.7	0	0	1	1.043	-3.44	230	2	1.06	0.94;
	141	2	145	58	0	0	1	1.051	0.05	230	2	1.06	0.94;
	142	1	56.5	24.5	0	0	1	1.0155	-2.77	230	2	1.06	0.94;
	143	2	89.5	35.5	0	0	1	1.0435	4.03	230	2	1.06	0.94;
	144	1	0	0	0	0	1	1.016	-0.7	230	2	1.06	0.94;
	145	1	24	14	0	0	1	1.0081	-0.16	230	2	1.06	0.94;
	146	2	0	0	0	0	1	1.0528	4.32	230	2	1.06	0.94;
	147	2	0	0	0	0	1	1.0528	8.36	230	2	1.06	0.94;
	148	1	63	25	0	0	1	1.0577	0.28	230	2	1.06	0.94;
	149	2	0	0	0	0	1	1.0735	5.23	230	2	1.06	0.94;
	150	1	0	0	0	0	1	0.9869	6.34	230	2	1.06	0.94;
	151	1	0	0	0	0	1	1.0048	4.13	230	2	1.06	0.94;
	152	2	17	9	0	0	1	1.0535	9.24	230	2	1.06	0.94;
	153	2	0	0	0	0	1	1.0435	10.46	230	2	1.06	0.94;
	154	1	70	5	0	34.5	1	0.9663	-1.8	115	2	1.06	0.94;
	155	1	200	50	0	0	1	1.0177	6.75	230	2	1.06	0.94;
	156	2	75	50	0	0	1	0.963	5.15	115	2	1.06	0.94;
	157	1	123.5	-24.3	0	0	1	0.9845	-11.93	230	2	1.06	0.94;
	158	1	0	0	0	0	1	0.9987	-11.4	230	2	1.06	0.94;
	159	1	33	16.5	0	0	1	0.9867	-9.82	230	2	1.06	0.94;
	160	1	0	0	0	0	1	0.9998	-12.55	230	2	1.06	0.94;
	161	1	35	15	0	0	1	1.036	8.85	230	2	1.06	0.94;
	162	1	85	24	0	0	1	0.9918	18.5	230	2	1.06	0.94;
	163	1	0	0.4	0	0	1	1.041	2.91	230	2	1.06	0.94;
	164	1	0	0	0	-212	1	0.9839	9.66	230	2	1.06	0.94;
	165	1	0	0	0	0	1	1.0002	26.31	230	2	1.06	0.94;
	166	1	0	0	0	-103	1	0.9973	30.22	230	2	1.06	0.94;
	167	1	299.9	95.7	0	0	1	0.9715	-6.91	230	2	1.06	0.94;
	168	1	0	0	0	0	1	1.0024	-4.8	230	2	1.06	0.94;
	169	1	0	0	0	0	1	0.9879	-6.68	230	2	1.06	0.94;
	170	2	481.8	205	0	0	1	0.929	0.09	115	2	1.06	0.94;
	171	2	763.6	291.1	0	0	1	0.9829	-9.94	115	2	1.06	0.94;
	172	1	26.5	0	0	0	1	1.0244	-6.22	115	2	1.06	0.94;
	173	1	163.5	43	0	53	1	0.9837	-12.75	115	2	1.06	0.94;
	174	1	0	0	0	0	1	1.0622	-2.69	115	2	1.06	0.94;
	175	1	176	83	0	0	1	0.973	-7.21	115	2	1.06	0.94;
	176	2	5	4	0	0	1	1.0522	4.67	115	2	1.06	0.94;
	177	2	28	12	0	0	1	1.0077	0.62	115	2	1.06	0.94;
	178	1	427.4	173.6	0	0	1	0.9397	-6.56	115	2	1.06	0.94;
	179	1	74	29	0	45	1	0.9699	-9.37	115	2	1.06	0.94;
	180	1	69.5	49.3	0	0	1	0.9793	-3.09	115	2	1.06	0.94;
	181	1	73.4	0	0	0	1	1.0518	-1.33	230	2	1.06	0.94;
	182	1	240.7	89	0	0	1	1.0447	-4.19	230	2	1.06	0.94;
	183	1	40	4	0	0	1	0.9717	7.12	115	2	1.06	0.94;
	184	1	136.8	16.6	0	0	1	1.0386	-6.85	230	2	1.06	0.94;
	185	2	0	0	0	0	1	1.0522	-4.33	230	2	1.06	0.94;
	186	2	59.8	24.3	0	0	1	1.065	2.17	230	2	1.06	0.94;
	187	2	59.8	24.3	0	0	1	1.065	1.4	230	2	1.06	0.94;
	188	1	182.6	43.6	0	0	1	1.0533	-0.72	230	2	1.06	0.94;
	189	1	7	2	0	0	1	0.9975	-25.84	66	3	1.06	0.94;
	190	2	0	0	0	-150	1	1.0551	-20.62	345	3	1.06	0.94;
	191	2	489	53	0	0	1	1.0435	12.25	230	3	1.06	0.94;
	192	1	800	72	0	0	1	0.9374	-11.18	230	3	1.06	0.94;
	193	1	0	0	0	0	1	0.9897	-26.09	66	3	1.06	0.94;
	194	1	0	0	0	0	1	1.0489	-19.21	345	3	1.06	0.94;
	195	1	0	0	0	0	1	1.0357	-20.79	345	3	1.06	0.94;
	196	1	10	3	0	0	1	0.9695	-25.32	115	3	1.06	0.94;
	197	1	43	14	0	0	1	0.9907	-23.72	115	3	1.06	0.94;
	198	2	64	21	0	0	1	1.015	-20.58	115	3	1.06	0.94;
	199	1	35	12	0	0	1	0.9528	-26.05	115	3	1.06	0.94;
	200	1	27	12	0	0	1	0.955	-25.93	115	3	1.06	0.94;
	201	1	41	14	0	0	1	0.9692	-27.49	66	1	1.06	0.94;
	202	1	38	13	0	0	1	0.9908	-25.33	66	3	1.06	0.94;
	203	1	42	14	0	0	1	1.0033	-22.35	115	3	1.06	0.94;
	204	1	72	24	0	0	1	0.9718	-25.7	66	3	1.06	0.94;
	205	1	0	-5	0	0	1	0.9838	-26.07	66	3	1.06	0.94;
	206	1	12	2	0	0	1	0.9992	-27.41	66	3	1.06	0.94;
	207	1	-21	-14.2	0	0	1	1.0137	-27.44	66	1	1.06	0.94;
	208	1	7	2	0	0	1	0.9929	-26.28	66	3	1.06	0.94;
	209	1	38	13	0	0	1	0.9999	-25.66	66	3	1.06	0.94;
	210	1	0	0	0	0	1	0.9788	-24.22	115	3	1.06	0.94;
	211	1	96	7	0	0	1	1.0017	-23.31	115	3	1.06	0.94;
	212	1	0	0	0	0	1	1.0132	-22.51	138	3	1.06	0.94;
	213	2	0	0	0	0	1	1.01	-11.67	16.5	3	1.06	0.94;
	214	1	22	16	0	0	1	0.9919	-17.53	138	3	1.06	0.94;
	215	1	47	26	0	0	1	0.9866	-20.23	138	3	1.06	0.94;
	216	1	176	105	0	0	1	0.9751	-22.53	138	3	1.06	0.94;
	217	1	100	75	0	0	1	1.0215	-22.2	138	3	1.06	0.94;
	218	1	131	96	0	0	1	1.0075	-22.63	138	3	1.06	0.94;
	219	1	0	0	0	0	1	1.0554	-21.15	345	3	1.06	0.94;
	220	2	285	100	0	0	1	1.008	-21.73	138	3	1.06	0.94;
	221	2	171	70	0	0	1	1	-22.49	138	3	1.06	0.94;
...
];

%% generator data
%	bus	Pg	Qg	Qmax	Qmin	Vg	mBase	status	Pmax	Pmin	Pc1	Pc2	Qc1min	Qc1max	Qc2min	Qc2max	ramp_agc	ramp_10	ramp_30	ramp_q	apf
mpc.gen = [
	8	0	0	10	-10	1.0153	100	1	100	0	0	0	0	0	0	0	0	0	0	0	0;
	10	0	0	20	-20	1.0205	100	1	100	0	0	0	0	0	0	0	0	0	0	0	0;
	20	0	0	20	-20	1.001	100	1	100	0	0	0	0	0	0	0	0	0	0	0	0;
	63	0	0	25	-25	0.9583	100	1	100	0	0	0	0	0	0	0	0	0	0	0	0;
	76	0	0	35	12	0.9632	100	1	100	0	0	0	0	0	0	0	0	0	0	0	0;
	84	375	0	240	-240	1.025	100	1	475	0	0	0	0	0	0	0	0	0	0	0	0;
	91	155	0	96	-11	1.052	100	1	255	0	0	0	0	0	0	0	0	0	0	0	0;
	92	290	0	153	-153	1.052	100	1	390	0	0	0	0	0	0	0	0	0	0	0	0;
	98	68	0	56	-30	1	100	1	168	0	0	0	0	0	0	0	0	0	0	0	0;
	108	117	0	77	-24	0.99	100	1	217	0	0	0	0	0	0	0	0	0	0	0	0;
	119	1930	0	1500	-500	1.0435	100	1	2030	0	0	0	0	0	0	0	0	0	0	0	0;
	124	240	0	120	-60	1.0233	100	1	340	0	0	0	0	0	0	0	0	0	0	0	0;
	125	0	0	200	-25	1.0103	100	1	100	0	0	0	0	0	0	0	0	0	0	0	0;
	138	0	0	350	-125	1.055	100	1	100	0	0	0	0	0	0	0	0	0	0	0	0;
	141	281	0	75	-50	1.051	100	1	381	0	0	0	0	0	0	0	0	0	0	0	0;
	143	696	0	300	-100	1.0435	100	1	796	0	0	0	0	0	0	0	0	0	0	0	0;
	146	84	0	35	-15	1.0528	100	1	184	0	0	0	0	0	0	0	0	0	0	0	0;
	147	217	0	100	-50	1.0528	100	1	317	0	0	0	0	0	0	0	0	0	0	0	0;
	149	103	0	50	-25	1.0735	100	1	203	0	0	0	0	0	0	0	0	0	0	0	0;
	152	372	0	175	-50	1.0535	100	1	472	0	0	0	0	0	0	0	0	0	0	0	0;
	153	216	0	90	-50	1.0435	100	1	316	0	0	0	0	0	0	0	0	0	0	0	0;
	156	0	0	15	-10	0.963	100	1	100	0	0	0	0	0	0	0	0	0	0	0	0;
	170	205	0	90	-40	0.929	100	1	305	0	0	0	0	0	0	0	0	0	0	0	0;
	171	0	0	150	-50	0.9829	100	1	100	0	0	0	0	0	0	0	0	0	0	0	0;
	176	228	0	90	-45	1.0522	100	1	328	0	0	0	0	0	0	0	0	0	0	0	0;
	177	84	0	35	-15	1.0077	100	1	184	0	0	0	0	0	0	0	0	0	0	0	0;
	185	200	0	80	-50	1.0522	100	1	300	0	0	0	0	0	0	0	0	0	0	0	0;
	186	1200	0	400	-100	1.065	100	1	1300	0	0	0	0	0	0	0	0	0	0	0	0;
	187	1200	0	400	-100	1.065	100	1	1300	0	0	0	0	0	0	0	0	0	0	0	0;
	190	475	0	300	-300	1.0551	100	1	575	0	0	0	0	0	0	0	0	0	0	0	0;
	191	1973	0	1000	-1000	1.0435	100	1	2073	0	0	0	0	0	0	0	0	0	0	0	0;
	198	424	0	260	-260	1.015	100	1	524	0	0	0	0	0	0	0	0	0	0	0	0;
	213	272	0	150	-150	1.01	100	1	372	0	0	0	0	0	0	0	0	0	0	0	0;
	220	100	0	60	-60	1.008	100	1	200	0	0	0	0	0	0	0	0	0	0	0	0;
	221	450	0	320	-320	1	100	1	550	0	0	0	0	0	0	0	0	0	0	0	0;
	222	250	0	300	-300	1.05	100	1	350	0	0	0	0	0	0	0	0	0	0	0	0;
	227	303	0	300	-300	1	100	1	403	0	0	0	0	0	0	0	0	0	0	0	0;
	230	345	0	250	-250	1.04	100	1	445	0	0	0	0	0	0	0	0	0	0	0	0;
	233	300	0	500	-500	1	100	1	400	0	0	0	0	0	0	0	0	0	0	0	0;
	236	600	0	300	-300	1.0165	100	1	700	0	0	0	0	0	0	0	0	0	0	0	0;
	238	250	0	200	-200	1.01	100	1	350	0	0	0	0	0	0	0	0	0	0	0	0;
	239	550	0	400	-400	1	100	1	650	0	0	0	0	0	0	0	0	0	0	0	0;
	241	575.43	0	600	-600	1.05	100	1	675.43	0	0	0	0	0	0	0	0	0	0	0	0;
	242	170	0	100	40	0.993	100	1	270	0	0	0	0	0	0	0	0	0	0	0	0;
	243	84	0	80	40	1.01	100	1	184	0	0	0	0	0	0	0	0	0	0	0	0;
	7001	467	0	210	-210	1.0507	100	1	567	0	0	0	0	0	0	0	0	0	0	0	0;
	7002	623	0	280	-280	1.0507	100	1	723	0	0	0	0	0	0	0	0	0	0	0	0;
	7003	1210	0	420	-420	1.0323	100	1	1310	0	0	0	0	0	0	0	0	0	0	0	0;
	7011	234	0	100	-100	1.0145	100	1	334	0	0	0	0	0	0	0	0	0	0	0	0;
	7012	372	0	224	-224	1.0507	100	1	472	0	0	0	0	0	0	0	0	0	0	0	0;
	7017	330	0	350	0	1.0507	100	1	430	0	0	0	0	0	0	0	0	0	0	0	0;
	7023	185	0	120	0	1.0507	100	1	285	0	0	0	0	0	0	0	0	0	0	0	0;
	7024	410	0	224	-224	1.029	100	1	510	0	0	0	0	0	0	0	0	0	0	0	0;
	7039	500	0	200	-200	1.05	100	1	600	0	0	0	0	0	0	0	0	0	0	0	0;
	7044	37	0	42	0	1.0145	100	1	137	0	0	0	0	0	0	0	0	0	0	0	0;
	7049	0	0	10	0	1.0507	100	1	2399.005	0	0	0	0	0	0	0	0	0	0	0	0;
	7055	45	0	25	0	0.9967	100	1	145	0	0	0	0	0	0	0	0	0	0	0	0;
	7057	165	0	90	-90	1.0212	100	1	265	0	0	0	0	0	0	0	0	0	0	0	0;
	7061	400	0	150	-150	1.0145	100	1	500	0	0	0	0	0	0	0	0	0	0	0	0;
	7062	400	0	150	0	1.0017	100	1	500	0	0	0	0	0	0	0	0	0	0	0	0;
	7071	116	0	87	0	0.9893	100	1	216	0	0	0	0	0	0	0	0	0	0	0	0;
	7130	1292	0	600	-100	1.0507	100	1	1392	0	0	0	0	0	0	0	0	0	0	0	0;
	7139	700	0	325	-125	1.0507	100	1	800	0	0	0	0	0	0	0	0	0	0	0	0;
	7166	553	0	300	-200	1.0145	100	1	653	0	0	0	0	0	0	0	0	0	0	0	0;
	9002	0	0	2	-2	0.9945	100	1	100	0	0	0	0	0	0	0	0	0	0	0	0;
	9051	0	0	17.35	-17.35	1	100	1	100	0	0	0	0	0	0	0	0	0	0	0	0;
	9053	0	0	12.83	-12.8	1	100	1	100	0	0	0	0	0	0	0	0	0	0	0	0;
	9054	50	0	38	-38	1	100	1	150	0	0	0	0	0	0	0	0	0	0	0	0;
	9055	8	0	6	-6	1	100	1	108	0	0	0	0	0	0	0	0	0	0	0	0;
];

%% branch data
%	fbus	tbus	r	x	b	rateA	rateB	rateC	ratio	angle	status	angmin	angmax
mpc.branch = [
	37	9001	6e-05	0.00046	0	0	0	75	1.0082	0	1	-360	360;
	9001	9005	0.0008	0.00348	0	0	0	0	0	0	1	-360	360;
	9001	9006	0.02439	0.43682	0	0	0	0	0.9668	0	1	-360	360;
	9001	9012	0.03624	0.64898	0	0	0	0	0.9796	0	1	-360	360;
	9005	9051	0.01578	0.37486	0	0	0	0	1.0435	0	1	-360	360;
	9005	9052	0.01578	0.37486	0	0	0	0	0.9391	0	1	-360	360;
	9005	9053	0.01602	0.38046	0	0	0	0	1.0435	0	1	-360	360;
	9005	9054	0	0.152	0	0	0	0	1.0435	0	1	-360	360;
	9005	9055	0	0.8	0	0	0	0	1.0435	0	1	-360	360;
	9006	9007	0.05558	0.24666	0	0	0	0	0	0	1	-360	360;
	9006	9003	0.11118	0.49332	0	0	0	0	0	0	1	-360	360;
	9006	9003	0.11118	0.49332	0	0	0	0	0	0	1	-360	360;
	9012	9002	0.07622	0.43286	0	0	0	0	0	0	1	-360	360;
	9012	9002	0.07622	0.43286	0	0	0	0	0	0	1	-360	360;
	9002	9021	0.0537	0.07026	0	0	0	0	0	0	1	-360	360;
	9021	9023	1.1068	0.95278	0	0	0	0	0	0	1	-360	360;
	9021	9022	0.44364	2.8152	0	0	0	0	1	0	1	-360	360;
	9002	9024	0.50748	3.2202	0	0	0	0	1	0	1	-360	360;
	9023	9025	0.66688	3.944	0	0	0	0	1	0	1	-360	360;
	9023	9026	0.6113	3.6152	0	0	0	0	1	0	1	-360	360;
	9007	9071	0.4412	2.9668	0	0	0	0	1	0	1	-360	360;
	9007	9072	0.30792	2.057	0	0	0	0	1	0	1	-360	360;
	9007	9003	0.0558	0.24666	0	0	0	0	0	0	1	-360	360;
	9003	9031	0.73633	4.6724	0	0	0	0	1	0	1	-360	360;
	9003	9032	0.76978	4.8846	0	0	0	0	1	0	1	-360	360;
	9003	9033	0.75732	4.8056	0	0	0	0	1	0	1	-360	360;
	9003	9044	0.07378	0.06352	0	0	0	0	0	0	1	-360	360;
	9044	9004	0.03832	0.02894	0	0	0	0	0	0	1	-360	360;
	9004	9041	0.36614	2.456	0	0	0	0	1	0	1	-360	360;
	9004	9042	1.0593	5.4536	0	0	0	0	1	0	1	-360	360;
	9004	9043	0.1567	1.6994	0	0	0	0	1	0	1	-360	360;
	9003	9034	0.13006	1.3912	0	0	0	0	1	0	1	-360	360;
	9003	9035	0.54484	3.4572	0	0	0	0	1	0	1	-360	360;
	9003	9036	0.15426	1.6729	0	0	0	0	1	0	1	-360	360;
	9003	9037	0.3849	2.5712	0	0	0	0	1	0	1	-360	360;
	9003	9038	0.4412	2.9668	0	0	0	0	1	0	1	-360	360;
	9012	9121	0.23552	0.99036	0	0	0	0	0	0	1	-360	360;
	9053	9533	0	0.75	0	0	0	0	0.9583	0	1	-360	360;
	1	5	0.001	0.006	0	0	0	0	0	0	1	-360	360;
	2	6	0.001	0.009	0	0	0	0	0	0	1	-360	360;
	2	8	0.006	0.027	0.054	0	0	0	0	0	1	-360	360;
	3	7	0	0.003	0	0	0	0	0	0	1	-360	360;
	3	19	0.008	0.069	0.139	0	0	0	0	0	1	-360	360;
	3	150	0.001	0.007	0	0	0	0	0	0	1	-360	360;
	4	16	0.002	0.019	1.127	0	0	0	0	0	1	-360	360;
	5	9	0.006	0.029	0.018	0	0	0	0	0	1	-360	360;
	7	12	0.001	0.009	0.07	0	0	0	0	0	1	-360	360;
	7	131	0.001	0.007	0.014	0	0	0	0	0	1	-360	360;
	8	11	0.013	0.0595	0.033	0	0	0	0	0	1	-360	360;
	8	14	0.013	0.042	0.081	0	0	0	0	0	1	-360	360;
	9	11	0.006	0.027	0.013	0	0	0	0	0	1	-360	360;
	11	13	0.008	0.034	0.018	0	0	0	0	0	1	-360	360;
	12	21	0.002	0.015	0.118	0	0	0	0	0	1	-360	360;
	13	20	0.006	0.034	0.016	0	0	0	0	0	1	-360	360;
	14	15	0.014	0.042	0.097	0	0	0	0	0	1	-360	360;
	15	37	0.065	0.248	0.121	0	0	0	0	0	1	-360	360;
	15	89	0.099	0.248	0.035	0	0	0	0	0	1	-360	360;
	15	90	0.096	0.363	0.048	0	0	0	0	0	1	-360	360;
	16	42	0.002	0.022	1.28	0	0	0	0	0	1	-360	360;
	19	21	0.002	0.018	0.036	0	0	0	0	0	1	-360	360;
	19	87	0.013	0.08	0.151	0	0	0	0	0	1	-360	360;
	20	22	0.016	0.033	0.015	0	0	0	0	0	1	-360	360;
	20	27	0.069	0.186	0.098	0	0	0	0	0	1	-360	360;
	21	24	0.004	0.034	0.28	0	0	0	0	0	1	-360	360;
	22	23	0.052	0.111	0.05	0	0	0	0	0	1	-360	360;
	23	25	0.019	0.039	0.018	0	0	0	0	0	1	-360	360;
	24	319	0.007	0.068	0.134	0	0	0	0	0	1	-360	360;
	25	26	0.036	0.071	0.034	0	0	0	0	0	1	-360	360;
	26	27	0.045	0.12	0.065	0	0	0	0	0	1	-360	360;
	26	320	0.043	0.13	0.014	0	0	0	0	0	1	-360	360;
	33	34	0	0.063	0	0	0	0	0	0	1	-360	360;
	33	38	0.0025	0.012	0.013	0	0	0	0	0	1	-360	360;
	33	40	0.006	0.029	0.02	0	0	0	0	0	1	-360	360;
	33	41	0.007	0.043	0.026	0	0	0	0	0	1	-360	360;
	34	42	0.001	0.008	0.042	0	0	0	0	0	1	-360	360;
	35	72	0.012	0.06	0.008	0	0	0	0	0	1	-360	360;
	35	76	0.006	0.014	0.002	0	0	0	0	0	1	-360	360;
	35	77	0.01	0.029	0.003	0	0	0	0	0	1	-360	360;
	36	88	0.004	0.027	0.043	0	0	0	0	0	1	-360	360;
	37	38	0.008	0.047	0.008	0	0	0	0	0	1	-360	360;
	37	40	0.022	0.064	0.007	0	0	0	0	0	1	-360	360;
	37	41	0.01	0.036	0.02	0	0	0	0	0	1	-360	360;
	37	49	0.017	0.081	0.048	0	0	0	0	0	1	-360	360;
	37	89	0.102	0.254	0.033	0	0	0	0	0	1	-360	360;
	37	90	0.047	0.127	0.016	0	0	0	0	0	1	-360	360;
	38	41	0.008	0.037	0.02	0	0	0	0	0	1	-360	360;
	38	43	0.032	0.087	0.04	0	0	0	0	0	1	-360	360;
	39	42	0.0006	0.0064	0.404	0	0	0	0	0	1	-360	360;
	40	48	0.026	0.154	0.022	0	0	0	0	0	1	-360	360;
	41	42	0	0.029	0	0	0	0	0	0	1	-360	360;
	41	49	0.065	0.191	0.02	0	0	0	0	0	1	-360	360;
	41	51	0.031	0.089	0.036	0	0	0	0	0	1	-360	360;
	42	46	0.002	0.014	0.806	0	0	0	0	0	1	-360	360;
	43	44	0.026	0.072	0.035	0	0	0	0	0	1	-360	360;
	43	48	0.095	0.262	0.032	0	0	0	0	0	1	-360	360;
	43	53	0.013	0.039	0.016	0	0	0	0	0	1	-360	360;
	44	47	0.027	0.084	0.039	0	0	0	0	0	1	-360	360;
	44	54	0.028	0.084	0.037	0	0	0	0	0	1	-360	360;
	45	60	0.007	0.041	0.312	0	0	0	0	0	1	-360	360;
	45	74	0.009	0.054	0.411	0	0	0	0	0	1	-360	360;
	46	81	0.005	0.042	0.69	0	0	0	0	0	1	-360	360;
	47	73	0.052	0.145	0.073	0	0	0	0	0	1	-360	360;
	47	113	0.043	0.118	0.013	0	0	0	0	0	1	-360	360;
	48	107	0.025	0.062	0.007	0	0	0	0	0	1	-360	360;
	49	51	0.031	0.094	0.043	0	0	0	0	0	1	-360	360;
	51	52	0.037	0.109	0.049	0	0	0	0	0	1	-360	360;
	52	55	0.027	0.08	0.036	0	0	0	0	0	1	-360	360;
	53	54	0.025	0.073	0.035	0	0	0	0	0	1	-360	360;
	54	55	0.035	0.103	0.047	0	0	0	0	0	1	-360	360;
	55	57	0.065	0.169	0.082	0	0	0	0	0	1	-360	360;
	57	58	0.046	0.08	0.036	0	0	0	0	0	1	-360	360;
	57	63	0.159	0.537	0.071	0	0	0	0	0	1	-360	360;
	58	59	0.009	0.026	0.005	0	0	0	0	0	1	-360	360;
	59	61	0.002	0.013	0.015	0	0	0	0	0	1	-360	360;
	60	62	0.009	0.065	0.485	0	0	0	0	0	1	-360	360;
	62	64	0.016	0.105	0.203	0	0	0	0	0	1	-360	360;
	62	144	0.001	0.007	0.013	0	0	0	0	0	1	-360	360;
	63	526	0.0265	0.172	0.026	0	0	0	0	0	1	-360	360;
	69	211	0.051	0.232	0.028	0	0	0	0	0	1	-360	360;
	69	79	0.051	0.157	0.023	0	0	0	0	0	1	-360	360;
	70	71	0.032	0.1	0.062	0	0	0	0	0	1	-360	360;
	70	528	0.02	0.1234	0.028	0	0	0	0	0	1	-360	360;
	71	72	0.036	0.131	0.068	0	0	0	0	0	1	-360	360;
	71	73	0.034	0.099	0.047	0	0	0	0	0	1	-360	360;
	72	77	0.018	0.087	0.011	0	0	0	0	0	1	-360	360;
	72	531	0.0256	0.193	0	0	0	0	0	0	1	-360	360;
	73	76	0.021	0.057	0.03	0	0	0	0	0	1	-360	360;
	73	79	0.018	0.052	0.018	0	0	0	0	0	1	-360	360;
	74	88	0.004	0.027	0.05	0	0	0	0	0	1	-360	360;
	74	562	0.0286	0.2013	0.379	0	0	0	0	0	1	-360	360;
	76	77	0.016	0.043	0.004	0	0	0	0	0	1	-360	360;
	77	78	0.001	0.006	0.007	0	0	0	0	0	1	-360	360;
	77	80	0.014	0.07	0.038	0	0	0	0	0	1	-360	360;
	77	552	0.0891	0.2676	0.029	0	0	0	0	0	1	-360	360;
	77	609	0.0782	0.2127	0.022	0	0	0	0	0	1	-360	360;
	78	79	0.006	0.022	0.011	0	0	0	0	0	1	-360	360;
	78	84	0	0.036	0	0	0	0	0	0	1	-360	360;
	79	211	0.099	0.375	0.051	0	0	0	0	0	1	-360	360;
	80	211	0.022	0.107	0.058	0	0	0	0	0	1	-360	360;
	81	194	0.0035	0.033	0.53	0	0	0	0	0	1	-360	360;
	81	195	0.0035	0.033	0.53	0	0	0	0	0	1	-360	360;
	85	86	0.008	0.064	0.128	0	0	0	0	0	1	-360	360;
	86	87	0.012	0.093	0.183	0	0	0	0	0	1	-360	360;
	86	323	0.006	0.048	0.092	0	0	0	0	0	1	-360	360;
	89	91	0.047	0.119	0.014	0	0	0	0	0	1	-360	360;
	90	92	0.032	0.174	0.024	0	0	0	0	0	1	-360	360;
	91	94	0.1	0.253	0.031	0	0	0	0	0	1	-360	360;
	91	97	0.022	0.077	0.039	0	0	0	0	0	1	-360	360;
	92	103	0.019	0.144	0.017	0	0	0	0	0	1	-360	360;
	92	105	0.017	0.092	0.012	0	0	0	0	0	1	-360	360;
	94	97	0.278	0.427	0.043	0	0	0	0	0	1	-360	360;
	97	100	0.022	0.053	0.007	0	0	0	0	0	1	-360	360;
	97	102	0.038	0.092	0.012	0	0	0	0	0	1	-360	360;
	97	103	0.048	0.122	0.015	0	0	0	0	0	1	-360	360;
	98	100	0.024	0.064	0.007	0	0	0	0	0	1	-360	360;
	98	102	0.034	0.121	0.015	0	0	0	0	0	1	-360	360;
	99	107	0.053	0.135	0.017	0	0	0	0	0	1	-360	360;
	99	108	0.002	0.004	0.002	0	0	0	0	0	1	-360	360;
	99	109	0.045	0.354	0.044	0	0	0	0	0	1	-360	360;
	99	110	0.05	0.174	0.022	0	0	0	0	0	1	-360	360;
	100	102	0.016	0.038	0.004	0	0	0	0	0	1	-360	360;
	102	104	0.043	0.064	0.027	0	0	0	0	0	1	-360	360;
	103	105	0.019	0.062	0.008	0	0	0	0	0	1	-360	360;
	104	108	0.076	0.13	0.044	0	0	0	0	0	1	-360	360;
	104	322	0.044	0.124	0.015	0	0	0	0	0	1	-360	360;
	105	107	0.012	0.088	0.011	0	0	0	0	0	1	-360	360;
	105	110	0.157	0.4	0.047	0	0	0	0	0	1	-360	360;
	108	324	0.074	0.208	0.026	0	0	0	0	0	1	-360	360;
	109	110	0.07	0.184	0.021	0	0	0	0	0	1	-360	360;
	109	113	0.1	0.274	0.031	0	0	0	0	0	1	-360	360;
	109	114	0.109	0.393	0.036	0	0	0	0	0	1	-360	360;
	110	112	0.142	0.404	0.05	0	0	0	0	0	1	-360	360;
	112	114	0.017	0.042	0.006	0	0	0	0	0	1	-360	360;
	115	122	0.0036	0.0199	0.004	0	0	0	0	0	1	-360	360;
	116	120	0.002	0.1049	0.001	0	0	0	0	0	1	-360	360;
	117	118	0.0001	0.0018	0.017	0	0	0	0	0	1	-360	360;
	118	119	0	0.0271	0	0	0	0	0	0	1	-360	360;
	118	1201	0	0.6163	0	0	0	0	0	0	1	-360	360;
	1201	120	0	-0.3697	0	0	0	0	0	0	1	-360	360;
	118	121	0.0022	0.2915	0	0	0	0	0	0	1	-360	360;
	119	120	0	0.0339	0	0	0	0	0	0	1	-360	360;
	119	121	0	0.0582	0	0	0	0	0	0	1	-360	360;
	122	123	0.0808	0.2344	0.029	0	0	0	0	0	1	-360	360;
	122	125	0.0965	0.3669	0.054	0	0	0	0	0	1	-360	360;
	123	124	0.036	0.1076	0.117	0	0	0	0	0	1	-360	360;
	123	125	0.0476	0.1414	0.149	0	0	0	0	0	1	-360	360;
	125	126	0.0006	0.0197	0	0	0	0	0	0	1	-360	360;
	126	127	0.0059	0.0405	0.25	0	0	0	0	0	1	-360	360;
	126	129	0.0115	0.1106	0.185	0	0	0	0	0	1	-360	360;
	126	132	0.0198	0.1688	0.321	0	0	0	0	0	1	-360	360;
	126	157	0.005	0.05	0.33	0	0	0	0	0	1	-360	360;
	126	158	0.0077	0.0538	0.335	0	0	0	0	0	1	-360	360;
	126	169	0.0165	0.1157	0.171	0	0	0	0	0	1	-360	360;
	127	128	0.0059	0.0577	0.095	0	0	0	0	0	1	-360	360;
	127	134	0.0049	0.0336	0.208	0	0	0	0	0	1	-360	360;
	127	168	0.0059	0.0577	0.095	0	0	0	0	0	1	-360	360;
	128	130	0.0078	0.0773	0.126	0	0	0	0	0	1	-360	360;
	128	133	0.0026	0.0193	0.03	0	0	0	0	0	1	-360	360;
	129	130	0.0076	0.0752	0.122	0	0	0	0	0	1	-360	360;
	129	133	0.0021	0.0186	0.03	0	0	0	0	0	1	-360	360;
...
];

%%-----  OPF Data  -----%%
%% generator cost data
%	1	startup	shutdown	n	x1	y1	...	xn	yn
%	2	startup	shutdown	n	c(n-1)	...	c0
mpc.gencost = [
	2	0	0	3	0.01	40	0;
	2	0	0	3	0.01	40	0;
	2	0	0	3	0.01	40	0;
	2	0	0	3	0.01	40	0;
	2	0	0	3	0.01	40	0;
	2	0	0	3	0.0266666667	20	0;
	2	0	0	3	0.064516129	20	0;
	2	0	0	3	0.0344827586	20	0;
	2	0	0	3	0.147058824	20	0;
	2	0	0	3	0.0854700855	20	0;
	2	0	0	3	0.00518134715	20	0;
	2	0	0	3	0.0416666667	20	0;
	2	0	0	3	0.01	40	0;
	2	0	0	3	0.01	40	0;
	2	0	0	3	0.0355871886	20	0;
	2	0	0	3	0.0143678161	20	0;
	2	0	0	3	0.119047619	20	0;
	2	0	0	3	0.0460829493	20	0;
	2	0	0	3	0.0970873786	20	0;
	2	0	0	3	0.0268817204	20	0;
	2	0	0	3	0.0462962963	20	0;
	2	0	0	3	0.01	40	0;
	2	0	0	3	0.0487804878	20	0;
	2	0	0	3	0.01	40	0;
	2	0	0	3	0.0438596491	20	0;
	2	0	0	3	0.119047619	20	0;
	2	0	0	3	0.05	20	0;
	2	0	0	3	0.00833333333	20	0;
	2	0	0	3	0.00833333333	20	0;
	2	0	0	3	0.0210526316	20	0;
	2	0	0	3	0.00506842372	20	0;
	2	0	0	3	0.0235849057	20	0;
	2	0	0	3	0.0367647059	20	0;
	2	0	0	3	0.1	20	0;
	2	0	0	3	0.0222222222	20	0;
	2	0	0	3	0.04	20	0;
	2	0	0	3	0.0330033003	20	0;
	2	0	0	3	0.0289855072	20	0;
	2	0	0	3	0.0333333333	20	0;
	2	0	0	3	0.0166666667	20	0;
	2	0	0	3	0.04	20	0;
	2	0	0	3	0.0181818182	20	0;
	2	0	0	3	0.0173783084	20	0;
	2	0	0	3	0.0588235294	20	0;
	2	0	0	3	0.119047619	20	0;
	2	0	0	3	0.0214132762	20	0;
	2	0	0	3	0.0160513644	20	0;
	2	0	0	3	0.00826446281	20	0;
	2	0	0	3	0.0427350427	20	0;
	2	0	0	3	0.0268817204	20	0;
	2	0	0	3	0.0303030303	20	0;
	2	0	0	3	0.0540540541	20	0;
	2	0	0	3	0.0243902439	20	0;
	2	0	0	3	0.02	20	0;
	2	0	0	3	0.27027027	20	0;
	2	0	0	3	0.01	40	0;
	2	0	0	3	0.222222222	20	0;
	2	0	0	3	0.0606060606	20	0;
	2	0	0	3	0.025	20	0;
	2	0	0	3	0.025	20	0;
	2	0	0	3	0.0862068966	20	0;
	2	0	0	3	0.00773993808	20	0;
	2	0	0	3	0.0142857143	20	0;
	2	0	0	3	0.0180831826	20	0;
	2	0	0	3	0.01	40	0;
	2	0	0	3	0.01	40	0;
	2	0	0	3	0.01	40	0;
	2	0	0	3	0.2	20	0;
	2	0	0	3	1.25	20	0;
];

% Warnings from cdf2matp conversion:
%
% ***** check the title format in the first line of the cdf file.
% ***** negative Pg at bus 8 treated as Pd
% ***** negative Pg at bus 10 treated as Pd
% ***** negative Pg at bus 20 treated as Pd
% ***** negative Pg at bus 138 treated as Pd
% ***** Qmax = Qmin at generator at bus 7049 (Qmax set to Qmin + 10)
% ***** negative Pg at bus 9002 treated as Pd
% ***** negative Pg at bus 9051 treated as Pd
% ***** negative Pg at bus 9053 treated as Pd
% ***** Insufficient generation, setting Pmax at slack bus (bus 7049) to 2399.01
% ***** MVA limit of branch 37 - 9001 not given, set to 0
% ***** MVA limit of branch 9001 - 9005 not given, set to 0
% ***** MVA limit of branch 9001 - 9006 not given, set to 0
% ***** MVA limit of branch 9001 - 9012 not given, set to 0
% ***** MVA limit of branch 9005 - 9051 not given, set to 0
% ***** MVA limit of branch 9005 - 9052 not given, set to 0
% ***** MVA limit of branch 9005 - 9053 not given, set to 0
% ***** MVA limit of branch 9005 - 9054 not given, set to 0
% ***** MVA limit of branch 9005 - 9055 not given, set to 0
% ***** MVA limit of branch 9006 - 9007 not given, set to 0
% ***** MVA limit of branch 9006 - 9003 not given, set to 0
% ***** MVA limit of branch 9006 - 9003 not given, set to 0
% ***** MVA limit of branch 9012 - 9002 not given, set to 0
% ***** MVA limit of branch 9012 - 9002 not given, set to 0
% ***** MVA limit of branch 9002 - 9021 not given, set to 0
% ***** MVA limit of branch 9021 - 9023 not given, set to 0
% ***** MVA limit of branch 9021 - 9022 not given, set to 0
% ***** MVA limit of branch 9002 - 9024 not given, set to 0
% ***** MVA limit of branch 9023 - 9025 not given, set to 0
% ***** MVA limit of branch 9023 - 9026 not given, set to 0
% ***** MVA limit of branch 9007 - 9071 not given, set to 0
% ***** MVA limit of branch 9007 - 9072 not given, set to 0
% ***** MVA limit of branch 9007 - 9003 not given, set to 0
% ***** MVA limit of branch 9003 - 9031 not given, set to 0
% ***** MVA limit of branch 9003 - 9032 not given, set to 0
% ***** MVA limit of branch 9003 - 9033 not given, set to 0
% ***** MVA limit of branch 9003 - 9044 not given, set to 0
% ***** MVA limit of branch 9044 - 9004 not given, set to 0
% ***** MVA limit of branch 9004 - 9041 not given, set to 0
% ***** MVA limit of branch 9004 - 9042 not given, set to 0
% ***** MVA limit of branch 9004 - 9043 not given, set to 0
% ***** MVA limit of branch 9003 - 9034 not given, set to 0
% ***** MVA limit of branch 9003 - 9035 not given, set to 0
% ***** MVA limit of branch 9003 - 9036 not given, set to 0
% ***** MVA limit of branch 9003 - 9037 not given, set to 0
% ***** MVA limit of branch 9003 - 9038 not given, set to 0
% ***** MVA limit of branch 9012 - 9121 not given, set to 0
% ***** MVA limit of branch 9053 - 9533 not given, set to 0
% ***** MVA limit of branch 1 - 5 not given, set to 0
% ***** MVA limit of branch 2 - 6 not given, set to 0
% ***** MVA limit of branch 2 - 8 not given, set to 0
% ***** MVA limit of branch 3 - 7 not given, set to 0
% ***** MVA limit of branch 3 - 19 not given, set to 0
% ***** MVA limit of branch 3 - 150 not given, set to 0
% ***** MVA limit of branch 4 - 16 not given, set to 0
% ***** MVA limit of branch 5 - 9 not given, set to 0
% ***** MVA limit of branch 7 - 12 not given, set to 0
% ***** MVA limit of branch 7 - 131 not given, set to 0
% ***** MVA limit of branch 8 - 11 not given, set to 0
% ***** MVA limit of branch 8 - 14 not given, set to 0
% ***** MVA limit of branch 9 - 11 not given, set to 0
% ***** MVA limit of branch 11 - 13 not given, set to 0
% ***** MVA limit of branch 12 - 21 not given, set to 0
% ***** MVA limit of branch 13 - 20 not given, set to 0
% ***** MVA limit of branch 14 - 15 not given, set to 0
% ***** MVA limit of branch 15 - 37 not given, set to 0
% ***** MVA limit of branch 15 - 89 not given, set to 0
% ***** MVA limit of branch 15 - 90 not given, set to 0
% ***** MVA limit of branch 16 - 42 not given, set to 0
% ***** MVA limit of branch 19 - 21 not given, set to 0
% ***** MVA limit of branch 19 - 87 not given, set to 0
% ***** MVA limit of branch 20 - 22 not given, set to 0
% ***** MVA limit of branch 20 - 27 not given, set to 0
% ***** MVA limit of branch 21 - 24 not given, set to 0
% ***** MVA limit of branch 22 - 23 not given, set to 0
% ***** MVA limit of branch 23 - 25 not given, set to 0
% ***** MVA limit of branch 24 - 319 not given, set to 0
% ***** MVA limit of branch 25 - 26 not given, set to 0
% ***** MVA limit of branch 26 - 27 not given, set to 0
% ***** MVA limit of branch 26 - 320 not given, set to 0
% ***** MVA limit of branch 33 - 34 not given, set to 0
% ***** MVA limit of branch 33 - 38 not given, set to 0
% ***** MVA limit of branch 33 - 40 not given, set to 0
% ***** MVA limit of branch 33 - 41 not given, set to 0
% ***** MVA limit of branch 34 - 42 not given, set to 0
% ***** MVA limit of branch 35 - 72 not given, set to 0
% ***** MVA limit of branch 35 - 76 not given, set to 0
% ***** MVA limit of branch 35 - 77 not given, set to 0
% ***** MVA limit of branch 36 - 88 not given, set to 0
% ***** MVA limit of branch 37 - 38 not given, set to 0
% ***** MVA limit of branch 37 - 40 not given, set to 0
% ***** MVA limit of branch 37 - 41 not given, set to 0
% ***** MVA limit of branch 37 - 49 not given, set to 0
% ***** MVA limit of branch 37 - 89 not given, set to 0
% ***** MVA limit of branch 37 - 90 not given, set to 0
% ***** MVA limit of branch 38 - 41 not given, set to 0
% ***** MVA limit of branch 38 - 43 not given, set to 0
% ***** MVA limit of branch 39 - 42 not given, set to 0
% ***** MVA limit of branch 40 - 48 not given, set to 0
% ***** MVA limit of branch 41 - 42 not given, set to 0
% ***** MVA limit of branch 41 - 49 not given, set to 0
% ***** MVA limit of branch 41 - 51 not given, set to 0
% ***** MVA limit of branch 42 - 46 not given, set to 0
% ***** MVA limit of branch 43 - 44 not given, set to 0
% ***** MVA limit of branch 43 - 48 not given, set to 0
% ***** MVA limit of branch 43 - 53 not given, set to 0
% ***** MVA limit of branch 44 - 47 not given, set to 0
% ***** MVA limit of branch 44 - 54 not given, set to 0
% ***** MVA limit of branch 45 - 60 not given, set to 0
% ***** MVA limit of branch 45 - 74 not given, set to 0
% ***** MVA limit of branch 46 - 81 not given, set to 0
% ***** MVA limit of branch 47 - 73 not given, set to 0
% ***** MVA limit of branch 47 - 113 not given, set to 0
% ***** MVA limit of branch 48 - 107 not given, set to 0
% ***** MVA limit of branch 49 - 51 not given, set to 0
% ***** MVA limit of branch 51 - 52 not given, set to 0
% ***** MVA limit of branch 52 - 55 not given, set to 0
% ***** MVA limit of branch 53 - 54 not given, set to 0
% ***** MVA limit of branch 54 - 55 not given, set to 0
% ***** MVA limit of branch 55 - 57 not given, set to 0
% ***** MVA limit of branch 57 - 58 not given, set to 0
% ***** MVA limit of branch 57 - 63 not given, set to 0
% ***** MVA limit of branch 58 - 59 not given, set to 0
% ***** MVA limit of branch 59 - 61 not given, set to 0
% ***** MVA limit of branch 60 - 62 not given, set to 0
% ***** MVA limit of branch 62 - 64 not given, set to 0
% ***** MVA limit of branch 62 - 144 not given, set to 0
% ***** MVA limit of branch 63 - 526 not given, set to 0
% ***** MVA limit of branch 69 - 211 not given, set to 0
% ***** MVA limit of branch 69 - 79 not given, set to 0
% ***** MVA limit of branch 70 - 71 not given, set to 0
% ***** MVA limit of branch 70 - 528 not given, set to 0
% ***** MVA limit of branch 71 - 72 not given, set to 0
% ***** MVA limit of branch 71 - 73 not given, set to 0
% ***** MVA limit of branch 72 - 77 not given, set to 0
% ***** MVA limit of branch 72 - 531 not given, set to 0
% ***** MVA limit of branch 73 - 76 not given, set to 0
% ***** MVA limit of branch 73 - 79 not given, set to 0
% ***** MVA limit of branch 74 - 88 not given, set to 0
% ***** MVA limit of branch 74 - 562 not given, set to 0
% ***** MVA limit of branch 76 - 77 not given, set to 0
% ***** MVA limit of branch 77 - 78 not given, set to 0
% ***** MVA limit of branch 77 - 80 not given, set to 0
% ***** MVA limit of branch 77 - 552 not given, set to 0
% ***** MVA limit of branch 77 - 609 not given, set to 0
% ***** MVA limit of branch 78 - 79 not given, set to 0
% ***** MVA limit of branch 78 - 84 not given, set to 0
% ***** MVA limit of branch 79 - 211 not given, set to 0
% ***** MVA limit of branch 80 - 211 not given, set to 0
% ***** MVA limit of branch 81 - 194 not given, set to 0
% ***** MVA limit of branch 81 - 195 not given, set to 0
% ***** MVA limit of branch 85 - 86 not given, set to 0
% ***** MVA limit of branch 86 - 87 not given, set to 0
% ***** MVA limit of branch 86 - 323 not given, set to 0
% ***** MVA limit of branch 89 - 91 not given, set to 0
% ***** MVA limit of branch 90 - 92 not given, set to 0
% ***** MVA limit of branch 91 - 94 not given, set to 0
% ***** MVA limit of branch 91 - 97 not given, set to 0
% ***** MVA limit of branch 92 - 103 not given, set to 0
% ***** MVA limit of branch 92 - 105 not given, set to 0
% ***** MVA limit of branch 94 - 97 not given, set to 0
% ***** MVA limit of branch 97 - 100 not given, set to 0
% ***** MVA limit of branch 97 - 102 not given, set to 0
% ***** MVA limit of branch 97 - 103 not given, set to 0
% ***** MVA limit of branch 98 - 100 not given, set to 0
% ***** MVA limit of branch 98 - 102 not given, set to 0
% ***** MVA limit of branch 99 - 107 not given, set to 0
% ***** MVA limit of branch 99 - 108 not given, set to 0
% ***** MVA limit of branch 99 - 109 not given, set to 0
% ***** MVA limit of branch 99 - 110 not given, set to 0
% ***** MVA limit of branch 100 - 102 not given, set to 0
% ***** MVA limit of branch 102 - 104 not given, set to 0
% ***** MVA limit of branch 103 - 105 not given, set to 0
% ***** MVA limit of branch 104 - 108 not given, set to 0
% ***** MVA limit of branch 104 - 322 not given, set to 0
% ***** MVA limit of branch 105 - 107 not given, set to 0
% ***** MVA limit of branch 105 - 110 not given, set to 0
% ***** MVA limit of branch 108 - 324 not given, set to 0
% ***** MVA limit of branch 109 - 110 not given, set to 0
% ***** MVA limit of branch 109 - 113 not given, set to 0
% ***** MVA limit of branch 109 - 114 not given, set to 0
% ***** MVA limit of branch 110 - 112 not given, set to 0
% ***** MVA limit of branch 112 - 114 not given, set to 0
% ***** MVA limit of branch 115 - 122 not given, set to 0
% ***** MVA limit of branch 116 - 120 not given, set to 0
% ***** MVA limit of branch 117 - 118 not given, set to 0
% ***** MVA limit of branch 118 - 119 not given, set to 0
% ***** MVA limit of branch 118 - 1201 not given, set to 0
% ***** MVA limit of branch 1201 - 120 not given, set to 0
% ***** MVA limit of branch 118 - 121 not given, set to 0
% ***** MVA limit of branch 119 - 120 not given, set to 0
% ***** MVA limit of branch 119 - 121 not given, set to 0
% ***** MVA limit of branch 122 - 123 not given, set to 0
% ***** MVA limit of branch 122 - 125 not given, set to 0
% ***** MVA limit of branch 123 - 124 not given, set to 0
% ***** MVA limit of branch 123 - 125 not given, set to 0
% ***** MVA limit of branch 125 - 126 not given, set to 0
% ***** MVA limit of branch 126 - 127 not given, set to 0
% ***** MVA limit of branch 126 - 129 not given, set to 0
% ***** MVA limit of branch 126 - 132 not given, set to 0
% ***** MVA limit of branch 126 - 157 not given, set to 0
% ***** MVA limit of branch 126 - 158 not given, set to 0
% ***** MVA limit of branch 126 - 169 not given, set to 0
% ***** MVA limit of branch 127 - 128 not given, set to 0
% ***** MVA limit of branch 127 - 134 not given, set to 0
% ***** MVA limit of branch 127 - 168 not given, set to 0
% ***** MVA limit of branch 128 - 130 not given, set to 0
% ***** MVA limit of branch 128 - 133 not given, set to 0
% ***** MVA limit of branch 129 - 130 not given, set to 0
% ***** MVA limit of branch 129 - 133 not given, set to 0
% ***** MVA limit of branch 130 - 132 not given, set to 0
% ***** MVA limit of branch 130 - 151 not given, set to 0
% ***** MVA limit of branch 130 - 167 not given, set to 0
% ***** MVA limit of branch 130 - 168 not given, set to 0
% ***** MVA limit of branch 133 - 137 not given, set to 0
% ***** MVA limit of branch 133 - 168 not given, set to 0
% ***** MVA limit of branch 133 - 169 not given, set to 0
% ***** MVA limit of branch 133 - 171 not given, set to 0
% ***** MVA limit of branch 134 - 135 not given, set to 0
% ***** MVA limit of branch 134 - 184 not given, set to 0
% ***** MVA limit of branch 135 - 136 not given, set to 0
% ***** MVA limit of branch 136 - 137 not given, set to 0
% ***** MVA limit of branch 136 - 152 not given, set to 0
% ***** MVA limit of branch 137 - 140 not given, set to 0
% ***** MVA limit of branch 137 - 181 not given, set to 0
% ***** MVA limit of branch 137 - 186 not given, set to 0
% ***** MVA limit of branch 137 - 188 not given, set to 0
% ***** MVA limit of branch 139 - 172 not given, set to 0
% ***** MVA limit of branch 140 - 141 not given, set to 0
% ***** MVA limit of branch 140 - 142 not given, set to 0
% ***** MVA limit of branch 140 - 145 not given, set to 0
% ***** MVA limit of branch 140 - 146 not given, set to 0
% ***** MVA limit of branch 140 - 147 not given, set to 0
% ***** MVA limit of branch 140 - 182 not given, set to 0
% ***** MVA limit of branch 141 - 146 not given, set to 0
% ***** MVA limit of branch 142 - 143 not given, set to 0
% ***** MVA limit of branch 143 - 145 not given, set to 0
% ***** MVA limit of branch 143 - 149 not given, set to 0
% ***** MVA limit of branch 145 - 146 not given, set to 0
% ***** MVA limit of branch 145 - 149 not given, set to 0
% ***** MVA limit of branch 146 - 147 not given, set to 0
% ***** MVA limit of branch 148 - 178 not given, set to 0
% ***** MVA limit of branch 148 - 179 not given, set to 0
% ***** MVA limit of branch 152 - 153 not given, set to 0
% ***** MVA limit of branch 153 - 161 not given, set to 0
% ***** MVA limit of branch 154 - 156 not given, set to 0
% ***** MVA limit of branch 154 - 183 not given, set to 0
% ***** MVA limit of branch 155 - 161 not given, set to 0
% ***** MVA limit of branch 157 - 159 not given, set to 0
% ***** MVA limit of branch 158 - 159 not given, set to 0
% ***** MVA limit of branch 158 - 160 not given, set to 0
% ***** MVA limit of branch 162 - 164 not given, set to 0
% ***** MVA limit of branch 162 - 165 not given, set to 0
% ***** MVA limit of branch 163 - 164 not given, set to 0
% ***** MVA limit of branch 165 - 166 not given, set to 0
% ***** MVA limit of branch 167 - 169 not given, set to 0
% ***** MVA limit of branch 172 - 173 not given, set to 0
% ***** MVA limit of branch 172 - 174 not given, set to 0
% ***** MVA limit of branch 173 - 174 not given, set to 0
% ***** MVA limit of branch 173 - 175 not given, set to 0
% ***** MVA limit of branch 173 - 176 not given, set to 0
% ***** MVA limit of branch 175 - 176 not given, set to 0
% ***** MVA limit of branch 175 - 179 not given, set to 0
% ***** MVA limit of branch 176 - 177 not given, set to 0
% ***** MVA limit of branch 177 - 178 not given, set to 0
% ***** MVA limit of branch 178 - 179 not given, set to 0
% ***** MVA limit of branch 178 - 180 not given, set to 0
% ***** MVA limit of branch 181 - 138 not given, set to 0
% ***** MVA limit of branch 181 - 187 not given, set to 0
% ***** MVA limit of branch 184 - 185 not given, set to 0
% ***** MVA limit of branch 186 - 188 not given, set to 0
% ***** MVA limit of branch 187 - 188 not given, set to 0
% ***** MVA limit of branch 188 - 138 not given, set to 0
% ***** MVA limit of branch 189 - 208 not given, set to 0
% ***** MVA limit of branch 189 - 209 not given, set to 0
% ***** MVA limit of branch 190 - 231 not given, set to 0
% ***** MVA limit of branch 190 - 240 not given, set to 0
% ***** MVA limit of branch 191 - 192 not given, set to 0
% ***** MVA limit of branch 192 - 225 not given, set to 0
% ***** MVA limit of branch 193 - 205 not given, set to 0
% ***** MVA limit of branch 193 - 208 not given, set to 0
% ***** MVA limit of branch 194 - 219 not given, set to 0
% ***** MVA limit of branch 194 - 664 not given, set to 0
% ***** MVA limit of branch 195 - 219 not given, set to 0
% ***** MVA limit of branch 196 - 197 not given, set to 0
% ***** MVA limit of branch 196 - 210 not given, set to 0
% ***** MVA limit of branch 197 - 198 not given, set to 0
% ***** MVA limit of branch 197 - 211 not given, set to 0
% ***** MVA limit of branch 198 - 202 not given, set to 0
% ***** MVA limit of branch 198 - 203 not given, set to 0
% ***** MVA limit of branch 198 - 210 not given, set to 0
% ***** MVA limit of branch 198 - 211 not given, set to 0
% ***** MVA limit of branch 199 - 200 not given, set to 0
% ***** MVA limit of branch 199 - 210 not given, set to 0
% ***** MVA limit of branch 200 - 210 not given, set to 0
% ***** MVA limit of branch 201 - 204 not given, set to 0
% ***** MVA limit of branch 203 - 211 not given, set to 0
% ***** MVA limit of branch 204 - 205 not given, set to 0
% ***** MVA limit of branch 205 - 206 not given, set to 0
% ***** MVA limit of branch 206 - 207 not given, set to 0
% ***** MVA limit of branch 206 - 208 not given, set to 0
% ***** MVA limit of branch 212 - 215 not given, set to 0
% ***** MVA limit of branch 213 - 214 not given, set to 0
% ***** MVA limit of branch 214 - 215 not given, set to 0
% ***** MVA limit of branch 214 - 242 not given, set to 0
% ***** MVA limit of branch 215 - 216 not given, set to 0
% ***** MVA limit of branch 216 - 217 not given, set to 0
% ***** MVA limit of branch 217 - 218 not given, set to 0
% ***** MVA limit of branch 217 - 219 not given, set to 0
% ***** MVA limit of branch 217 - 220 not given, set to 0
% ***** MVA limit of branch 219 - 237 not given, set to 0
% ***** MVA limit of branch 220 - 218 not given, set to 0
% ***** MVA limit of branch 220 - 221 not given, set to 0
% ***** MVA limit of branch 220 - 238 not given, set to 0
% ***** MVA limit of branch 221 - 223 not given, set to 0
% ***** MVA limit of branch 222 - 237 not given, set to 0
% ***** MVA limit of branch 224 - 225 not given, set to 0
% ***** MVA limit of branch 224 - 226 not given, set to 0
% ***** MVA limit of branch 225 - 191 not given, set to 0
% ***** MVA limit of branch 226 - 231 not given, set to 0
% ***** MVA limit of branch 227 - 231 not given, set to 0
% ***** MVA limit of branch 228 - 229 not given, set to 0
% ***** MVA limit of branch 228 - 231 not given, set to 0
% ***** MVA limit of branch 228 - 234 not given, set to 0
% ***** MVA limit of branch 229 - 190 not given, set to 0
% ***** MVA limit of branch 231 - 232 not given, set to 0
% ***** MVA limit of branch 231 - 237 not given, set to 0
% ***** MVA limit of branch 232 - 233 not given, set to 0
% ***** MVA limit of branch 234 - 235 not given, set to 0
% ***** MVA limit of branch 234 - 237 not given, set to 0
% ***** MVA limit of branch 235 - 238 not given, set to 0
% ***** MVA limit of branch 241 - 237 not given, set to 0
% ***** MVA limit of branch 240 - 281 not given, set to 0
% ***** MVA limit of branch 242 - 245 not given, set to 0
% ***** MVA limit of branch 242 - 247 not given, set to 0
% ***** MVA limit of branch 243 - 244 not given, set to 0
% ***** MVA limit of branch 243 - 245 not given, set to 0
% ***** MVA limit of branch 244 - 246 not given, set to 0
% ***** MVA limit of branch 245 - 246 not given, set to 0
% ***** MVA limit of branch 245 - 247 not given, set to 0
% ***** MVA limit of branch 246 - 247 not given, set to 0
% ***** MVA limit of branch 247 - 248 not given, set to 0
% ***** MVA limit of branch 248 - 249 not given, set to 0
% ***** MVA limit of branch 249 - 250 not given, set to 0
% ***** MVA limit of branch 3 - 1 not given, set to 0
% ***** MVA limit of branch 3 - 2 not given, set to 0
% ***** MVA limit of branch 3 - 4 not given, set to 0
% ***** MVA limit of branch 7 - 5 not given, set to 0
% ***** MVA limit of branch 7 - 6 not given, set to 0
% ***** MVA limit of branch 10 - 11 not given, set to 0
% ***** MVA limit of branch 12 - 10 not given, set to 0
% ***** MVA limit of branch 15 - 17 not given, set to 0
% ***** MVA limit of branch 16 - 15 not given, set to 0
% ***** MVA limit of branch 21 - 20 not given, set to 0
% ***** MVA limit of branch 24 - 23 not given, set to 0
% ***** MVA limit of branch 36 - 35 not given, set to 0
% ***** MVA limit of branch 45 - 44 not given, set to 0
% ***** MVA limit of branch 45 - 46 not given, set to 0
% ***** MVA limit of branch 62 - 61 not given, set to 0
% ***** MVA limit of branch 63 - 64 not given, set to 0
% ***** MVA limit of branch 73 - 74 not given, set to 0
% ***** MVA limit of branch 81 - 88 not given, set to 0
% ***** MVA limit of branch 85 - 99 not given, set to 0
% ***** MVA limit of branch 86 - 102 not given, set to 0
% ***** MVA limit of branch 87 - 94 not given, set to 0
% ***** MVA limit of branch 114 - 207 not given, set to 0
% ***** MVA limit of branch 116 - 124 not given, set to 0
% ***** MVA limit of branch 121 - 115 not given, set to 0
% ***** MVA limit of branch 122 - 157 not given, set to 0
% ***** MVA limit of branch 130 - 131 not given, set to 0
% ***** MVA limit of branch 130 - 150 not given, set to 0
% ***** MVA limit of branch 132 - 170 not given, set to 0
% ***** MVA limit of branch 141 - 174 not given, set to 0
% ***** MVA limit of branch 142 - 175 not given, set to 0
% ***** MVA limit of branch 143 - 144 not given, set to 0
% ***** MVA limit of branch 143 - 148 not given, set to 0
% ***** MVA limit of branch 145 - 180 not given, set to 0
% ***** MVA limit of branch 151 - 170 not given, set to 0
% ***** MVA limit of branch 153 - 183 not given, set to 0
% ***** MVA limit of branch 155 - 156 not given, set to 0
% ***** MVA limit of branch 159 - 117 not given, set to 0
% ***** MVA limit of branch 160 - 124 not given, set to 0
% ***** MVA limit of branch 163 - 137 not given, set to 0
% ***** MVA limit of branch 164 - 155 not given, set to 0
% ***** MVA limit of branch 182 - 139 not given, set to 0
% ***** MVA limit of branch 189 - 210 not given, set to 0
% ***** MVA limit of branch 193 - 196 not given, set to 0
% ***** MVA limit of branch 195 - 212 not given, set to 0
% ***** MVA limit of branch 200 - 248 not given, set to 0
% ***** MVA limit of branch 201 - 69 not given, set to 0
% ***** MVA limit of branch 202 - 211 not given, set to 0
% ***** MVA limit of branch 204 - 2040 not given, set to 0
% ***** MVA limit of branch 209 - 198 not given, set to 0
% ***** MVA limit of branch 211 - 212 not given, set to 0
% ***** MVA limit of branch 218 - 219 not given, set to 0
% ***** MVA limit of branch 223 - 224 not given, set to 0
% ***** MVA limit of branch 229 - 230 not given, set to 0
% ***** MVA limit of branch 234 - 236 not given, set to 0
% ***** MVA limit of branch 238 - 239 not given, set to 0
% ***** MVA limit of branch 196 - 2040 not given, set to 0
% ***** MVA limit of branch 119 - 1190 not given, set to 0
% ***** MVA limit of branch 120 - 1200 not given, set to 0
% ***** MVA limit of branch 7002 - 2 not given, set to 0
% ***** MVA limit of branch 7003 - 3 not given, set to 0
% ***** MVA limit of branch 7061 - 61 not given, set to 0
% ***** MVA limit of branch 7062 - 62 not given, set to 0
% ***** MVA limit of branch 7166 - 166 not given, set to 0
% ***** MVA limit of branch 7024 - 24 not given, set to 0
% ***** MVA limit of branch 7001 - 1 not given, set to 0
% ***** MVA limit of branch 7130 - 130 not given, set to 0
% ***** MVA limit of branch 7011 - 11 not given, set to 0
% ***** MVA limit of branch 7023 - 23 not given, set to 0
% ***** MVA limit of branch 7049 - 49 not given, set to 0
% ***** MVA limit of branch 7139 - 139 not given, set to 0
% ***** MVA limit of branch 7012 - 12 not given, set to 0
% ***** MVA limit of branch 7017 - 17 not given, set to 0
% ***** MVA limit of branch 7039 - 39 not given, set to 0
% ***** MVA limit of branch 7057 - 57 not given, set to 0
% ***** MVA limit of branch 7044 - 44 not given, set to 0
% ***** MVA limit of branch 7055 - 55 not given, set to 0
% ***** MVA limit of branch 7071 - 71 not given, set to 0

%%-----  Additional Power Flow  Data  -----%%
%% generator ramp ratio
% bus	ramp_up	ramp_dn
mpc.genramp_ratio = [
    1	0.05	0.05
];

%% load ratio in each period
% bus	t_1	t_2	t_3	t_4	t_5	t_6	t_7	t_8	t_9	t_10	t_11	t_12
mpc.load_ratio = [
    1	0.8147	0.0596	0.8507	0.9879	0.5038	0.1403	0.1982	0.9852	0.8169	0.4716	0.3796	0.5470
    2	0.9058	0.6820	0.5606	0.1704	0.4896	0.2601	0.1951	0.5595	0.1895	0.5430	0.3191	0.4030
    3	0.1270	0.0424	0.9296	0.2578	0.8770	0.0868	0.3268	0.9336	0.1237	0.0597	0.9861	0.1070
    4	0.9134	0.0714	0.6967	0.3968	0.3531	0.4294	0.8803	0.7203	0.8210	0.6580	0.7182	0.7242
    5	0.6324	0.5216	0.5828	0.0740	0.4494	0.2573	0.4711	0.4840	0.6379	0.8896	0.4132	0.6137
    6	0.0975	0.0967	0.8154	0.6841	0.9635	0.2976	0.4040	0.6390	0.0161	0.1096	0.0986	0.7830
    7	0.2785	0.8181	0.8790	0.4024	0.0423	0.4249	0.1792	0.8876	0.8960	0.4378	0.7346	0.5666
    8	0.5469	0.8175	0.9889	0.9828	0.9730	0.1192	0.9689	0.1987	0.5154	0.2802	0.6373	0.8113
    9	0.9575	0.7224	0.0005	0.4022	0.1892	0.4951	0.4075	0.3954	0.5445	0.9852	0.0738	0.5768
    10	0.9649	0.1499	0.8654	0.6207	0.6671	0.7064	0.8445	0.9922	0.6064	0.6088	0.1205	0.9440
    11	0.1576	0.6596	0.6126	0.1544	0.5864	0.2436	0.6153	0.4024	0.7604	0.2537	0.9816	0.8715
    12	0.9706	0.5186	0.9900	0.3813	0.6751	0.7851	0.3766	0.6589	0.8553	0.1326	0.4968	0.5076
    13	0.9572	0.9730	0.5277	0.1611	0.3610	0.0741	0.8772	0.9013	0.3829	0.5450	0.0224	0.7888
    14	0.4854	0.6490	0.4795	0.7581	0.6203	0.3939	0.7849	0.9954	0.0846	0.8278	0.0538	0.4730
    15	0.8003	0.8003	0.8013	0.8711	0.8112	0.0034	0.4650	0.6532	0.7339	0.8370	0.1409	0.8288
    16	0.1419	0.4538	0.2278	0.3508	0.0193	0.2207	0.8140	0.1084	0.3320	0.8333	0.8935	0.3225
    17	0.4218	0.4324	0.4981	0.6855	0.0839	0.0013	0.8984	0.0361	0.8397	0.2037	0.4658	0.9761
    18	0.9157	0.8253	0.9009	0.2941	0.9748	0.1892	0.4292	0.6181	0.3717	0.5444	0.5609	0.2782
    19	0.7922	0.0835	0.5747	0.5306	0.6513	0.1425	0.3343	0.5671	0.8282	0.8749	0.4945	0.0728
    20	0.9595	0.1332	0.8452	0.8324	0.2312	0.2681	0.5966	0.9620	0.1765	0.1210	0.0678	0.7512
    21	0.6557	0.1734	0.7386	0.5975	0.4035	0.1749	0.9020	0.7461	0.1295	0.8564	0.8976	0.8312
    22	0.0357	0.3909	0.5860	0.3353	0.1220	0.1386	0.7021	0.6625	0.8799	0.8998	0.2886	0.9223
    23	0.8491	0.8314	0.2467	0.2992	0.2684	0.5989	0.3775	0.5233	0.0441	0.2179	0.2690	0.3270
    24	0.9340	0.8034	0.6664	0.4526	0.2578	0.9011	0.7350	0.2599	0.6867	0.0770	0.5942	0.8041
    25	0.6787	0.0605	0.0835	0.4226	0.3317	0.9394	0.9541	0.9620	0.7338	0.4742	0.4759	0.5383
    26	0.7577	0.3993	0.6260	0.3596	0.1522	0.2212	0.5428	0.5402	0.4372	0.8350	0.3683	0.4633
    27	0.7431	0.5269	0.6609	0.5583	0.3480	0.4827	0.5401	0.0303	0.3798	0.4694	0.6556	0.8208
    28	0.3922	0.4168	0.7298	0.7425	0.1217	0.3760	0.3111	0.6963	0.9797	0.4138	0.9382	0.9519
    29	0.6555	0.6569	0.8908	0.4243	0.8842	0.5238	0.0712	0.5197	0.3990	0.5027	0.6204	0.0763
    30	0.1712	0.6280	0.9823	0.4294	0.0943	0.2649	0.1820	0.0590	0.4402	0.1254	0.2828	0.7087
    31	0.7060	0.2920	0.7690	0.1249	0.9300	0.0684	0.0930	0.8900	0.1568	0.1323	0.2052	0.2349
    32	0.0318	0.4317	0.5814	0.0244	0.3990	0.4363	0.4635	0.3302	0.3260	0.8705	0.4391	0.3989
    33	0.2769	0.0155	0.9283	0.2902	0.0474	0.1739	0.0093	0.2297	0.3141	0.6030	0.0273	0.2681
    34	0.0462	0.9841	0.5801	0.3175	0.3424	0.0261	0.9150	0.1139	0.8945	0.2653	0.8762	0.8325
    35	0.0971	0.1672	0.0170	0.6537	0.7360	0.9547	0.6427	0.3109	0.2470	0.8648	0.6101	0.9954
    36	0.8235	0.1062	0.1209	0.9569	0.7947	0.4306	0.0014	0.2284	0.3107	0.0581	0.2036	0.6498
    37	0.6948	0.3724	0.8627	0.9357	0.5449	0.9616	0.0304	0.6520	0.4089	0.4578	0.5199	0.7040
    38	0.3171	0.1981	0.4843	0.4579	0.6862	0.7624	0.2085	0.0662	0.7080	0.7222	0.0538	0.9323
    39	0.9502	0.4897	0.8449	0.2405	0.8936	0.0073	0.4550	0.2754	0.1436	0.3390	0.8622	0.6877
    40	0.0344	0.3395	0.2094	0.7639	0.0548	0.6800	0.1273	0.2818	0.8713	0.4012	0.4429	0.5684
    41	0.4387	0.9516	0.5523	0.7593	0.3037	0.7060	0.0086	0.8801	0.0832	0.5270	0.5480	0.3808
    42	0.3816	0.9203	0.6299	0.7406	0.0462	0.6451	0.7271	0.4443	0.4617	0.8942	0.5669	0.6346
    43	0.7655	0.0527	0.0320	0.7437	0.1955	0.5523	0.3541	0.7559	0.0304	0.7784	0.6804	0.3632
    44	0.7952	0.7379	0.6147	0.1059	0.7202	0.2181	0.7804	0.6033	0.7532	0.0694	0.3714	0.4076
    45	0.1869	0.2691	0.3624	0.6816	0.7218	0.7724	0.4367	0.7833	0.7000	0.2788	0.0782	0.3687
    46	0.4898	0.4228	0.0495	0.4633	0.8778	0.2280	0.4366	0.1139	0.2145	0.3794	0.4564	0.4684
    47	0.4456	0.5479	0.4896	0.2122	0.5824	0.3709	0.0492	0.9786	0.6799	0.8647	0.0478	0.5034
    48	0.6463	0.9427	0.1925	0.0985	0.0707	0.8909	0.0496	0.8486	0.5573	0.4200	0.7383	0.9105
    49	0.7094	0.4177	0.1231	0.8236	0.9227	0.8564	0.0911	0.0506	0.8507	0.2399	0.0380	0.2064
    50	0.7547	0.9831	0.2055	0.1750	0.8004	0.4024	0.5940	0.4662	0.5586	0.5977	0.9542	0.3386
    51	0.2760	0.3015	0.1465	0.1636	0.2859	0.3180	0.2411	0.3257	0.9018	0.4794	0.7424	0.5741
    52	0.6797	0.7011	0.1891	0.6660	0.5437	0.6086	0.8414	0.6302	0.4195	0.8985	0.9374	0.4869
    53	0.6551	0.6663	0.0427	0.8944	0.9848	0.9102	0.8572	0.2303	0.3581	0.9347	0.5134	0.2622
    54	0.1626	0.5391	0.6352	0.5166	0.7157	0.9091	0.9636	0.5799	0.4890	0.8179	0.2409	0.5796
    55	0.1190	0.6981	0.2819	0.7027	0.8390	0.5916	0.4889	0.6032	0.2560	0.7089	0.2600	0.8783
    56	0.4984	0.6665	0.5386	0.1536	0.4333	0.3326	0.2203	0.5999	0.9292	0.7432	0.7590	0.0610
    57	0.9597	0.1781	0.6952	0.9535	0.4706	0.8531	0.2262	0.4484	0.4668	0.8997	0.9933	0.4409
    58	0.3404	0.1280	0.4991	0.5409	0.5607	0.4424	0.5368	0.0354	0.2540	0.0652	0.3567	0.0843
    59	0.5853	0.9991	0.5358	0.6797	0.2691	0.9044	0.7621	0.5138	0.4312	0.3359	0.7529	0.5632
    60	0.2238	0.1711	0.4452	0.0366	0.7490	0.0332	0.3476	0.4077	0.7025	0.0043	0.1100	0.5393
    61	0.7513	0.0326	0.1239	0.8092	0.5039	0.5324	0.4612	0.1080	0.4023	0.8281	0.5970	0.7681
    62	0.2551	0.5612	0.4904	0.7486	0.6468	0.7165	0.6393	0.4599	0.1818	0.5074	0.4306	0.2331
    63	0.5060	0.8819	0.8530	0.1202	0.3077	0.1793	0.9173	0.4509	0.8563	0.3662	0.7307	0.5874
    64	0.6991	0.6692	0.8739	0.5250	0.1387	0.3365	0.1616	0.5511	0.5842	0.2266	0.2612	0.4590
    65	0.8909	0.1904	0.2703	0.3258	0.4756	0.1877	0.7156	0.8054	0.3736	0.5348	0.0948	0.8610
    66	0.9593	0.3689	0.2085	0.5464	0.3625	0.3219	0.5777	0.7009	0.2217	0.2895	0.4510	0.6608
    67	0.5472	0.4607	0.5650	0.3989	0.7881	0.4039	0.4333	0.8722	0.2190	0.0684	0.6401	0.3539
    68	0.1386	0.9816	0.6403	0.4151	0.7803	0.5486	0.8842	0.0522	0.5222	0.0850	0.1320	0.3472
    69	0.1493	0.1564	0.4170	0.1807	0.6685	0.0487	0.3931	0.2197	0.4334	0.0683	0.4528	0.2537
    70	0.2575	0.8555	0.2060	0.2554	0.1335	0.5527	0.1790	0.4596	0.7413	0.4098	0.6522	0.9525
    71	0.8407	0.6448	0.9479	0.0205	0.0216	0.2748	0.6333	0.9585	0.0704	0.1234	0.8270	0.2982
    72	0.2543	0.3763	0.0821	0.9237	0.5598	0.2415	0.6240	0.7900	0.8473	0.4430	0.3081	0.1584
    73	0.8143	0.1909	0.1057	0.6537	0.3008	0.2431	0.3279	0.4519	0.6799	0.8989	0.4024	0.3613
    74	0.2435	0.4283	0.1420	0.9326	0.9394	0.1542	0.8030	0.3334	0.1367	0.3536	0.8842	0.7416
    75	0.9293	0.4820	0.1665	0.1635	0.9809	0.9564	0.9995	0.0591	0.8584	0.1202	0.7006	0.7059
    76	0.3500	0.1206	0.6210	0.9211	0.2866	0.9357	0.9810	0.7409	0.1998	0.5691	0.2419	0.7009
    77	0.1966	0.5895	0.5737	0.7947	0.8008	0.8187	0.1270	0.5068	0.6073	0.8750	0.7598	0.0062
    78	0.2511	0.2262	0.0521	0.5774	0.8961	0.7283	0.2322	0.1999	0.5430	0.3486	0.2909	0.3743
    79	0.6160	0.3846	0.9312	0.4400	0.5975	0.1758	0.0236	0.4272	0.1623	0.0419	0.2774	0.9015
    80	0.4733	0.5830	0.7287	0.2576	0.8840	0.3604	0.6074	0.1687	0.0057	0.1423	0.0061	0.3183
    81	0.3517	0.2518	0.7378	0.7519	0.9437	0.1888	0.1108	0.7517	0.7715	0.0766	0.3747	0.5971
    82	0.8308	0.2904	0.0634	0.2287	0.5492	0.0012	0.4075	0.3684	0.7648	0.7405	0.4369	0.2978
    83	0.5853	0.6171	0.8604	0.0642	0.7284	0.3164	0.8841	0.9418	0.4211	0.4565	0.3043	0.1250
    84	0.5497	0.2653	0.9344	0.7673	0.5768	0.6996	0.5481	0.0172	0.0568	0.6682	0.2909	0.3884
    85	0.9172	0.8244	0.9844	0.6712	0.0259	0.6253	0.3690	0.8291	0.5857	0.6992	0.2425	0.8177
    86	0.2858	0.9827	0.8589	0.7152	0.4465	0.5431	0.2083	0.6266	0.1742	0.5714	0.9367	0.9812
    87	0.7572	0.7302	0.7856	0.6421	0.6463	0.4390	0.4409	0.5387	0.7286	0.6287	0.8602	0.8620
    88	0.7537	0.3439	0.5134	0.4190	0.5212	0.2874	0.9562	0.6505	0.5343	0.8778	0.3972	0.0838
    89	0.3804	0.5841	0.1776	0.3908	0.3723	0.5017	0.1240	0.7266	0.2531	0.6624	0.4794	0.3377
    90	0.5678	0.1078	0.3986	0.8161	0.9371	0.7615	0.4708	0.0945	0.9171	0.8754	0.5650	0.2361
    91	0.0759	0.9063	0.1339	0.3174	0.8295	0.7624	0.8569	0.8776	0.7582	0.4675	0.4896	0.3178
    92	0.0540	0.8797	0.0309	0.8145	0.8491	0.5761	0.0434	0.0144	0.8870	0.1413	0.2698	0.9844
    93	0.5308	0.8178	0.9391	0.7891	0.3725	0.7477	0.6916	0.2943	0.0688	0.0681	0.9897	0.5483
    94	0.7792	0.2607	0.3013	0.8523	0.5932	0.6455	0.9790	0.1799	0.1835	0.7142	0.1837	0.7493
    95	0.9340	0.5944	0.2955	0.5056	0.8726	0.1232	0.2833	0.9263	0.7371	0.3080	0.8617	0.8419
    96	0.1299	0.0225	0.3329	0.6357	0.9335	0.5044	0.1338	0.0682	0.6967	0.6712	0.0326	0.1669
    97	0.5688	0.4253	0.4671	0.9509	0.6685	0.3473	0.6853	0.5811	0.7770	0.6524	0.3320	0.9031
    98	0.4694	0.3127	0.6482	0.4440	0.2068	0.0921	0.9095	0.6372	0.5019	0.5310	0.7487	0.1051
    99	0.0119	0.1615	0.0252	0.0600	0.6539	0.1478	0.6109	0.6513	0.4255	0.7151	0.6444	0.7451
    100	0.3371	0.1788	0.8422	0.8667	0.0721	0.1982	0.9000	0.8646	0.6112	0.5048	0.1692	0.7294
    101	0.1622	0.4229	0.5590	0.6312	0.4067	0.6723	0.1934	0.0560	0.8558	0.4880	0.9522	0.7175
    102	0.7943	0.0942	0.8541	0.3551	0.6669	0.4315	0.7544	0.8169	0.6708	0.4978	0.5433	0.1334
    103	0.3112	0.5985	0.3479	0.9970	0.9337	0.6944	0.3463	0.5289	0.5236	0.9360	0.2514	0.4458
    104	0.5285	0.4709	0.4460	0.2242	0.8110	0.2568	0.4186	0.6944	0.2988	0.3893	0.5786	0.5088
    105	0.1656	0.6959	0.0542	0.6525	0.4845	0.0098	0.1557	0.2124	0.7040	0.1171	0.9155	0.5305
...